Info: SIMULATION PARAMETERS:
Info: TIMESTEP               1
Info: NUMBER OF STEPS        0
Info: STEPS PER CYCLE        20
Info: PERIODIC CELL BASIS 1  25.699 0 0
Info: PERIODIC CELL BASIS 2  0 22.256 0
Info: PERIODIC CELL BASIS 3  0 0 50
Info: PERIODIC CELL CENTER   0 0 0
Info: FIRST LDB TIMESTEP     100
Info: LAST LDB TIMESTEP     -1
Info: HOM BACKGROUND SCALING 1
Info: PME BACKGROUND SCALING 1
Info: MIN ATOMS PER PATCH    40
Info: INITIAL TEMPERATURE    298.15
Info: CENTER OF MASS MOVING INITIALLY? NO
Info: DIELECTRIC             1
Info: EXCLUDE                SCALED ONE-FOUR
Info: 1-4 ELECTROSTATICS SCALED BY 1
Info: MODIFIED 1-4 VDW PARAMETERS WILL BE USED
Info: DCD FILENAME           result.dcd
Info: DCD FREQUENCY          60
Info: DCD FIRST STEP         60
Info: DCD FILE WILL CONTAIN UNIT CELL DATA
Info: NO EXTENDED SYSTEM TRAJECTORY OUTPUT
Info: NO VELOCITY DCD OUTPUT
Info: NO FORCE DCD OUTPUT
Info: OUTPUT FILENAME        result
Info: NO RESTART FILE
Info: CUTOFF                 12
Info: PAIRLIST DISTANCE      15
Info: PAIRLIST SHRINK RATE   0.01
Info: PAIRLIST GROW RATE     0.01
Info: PAIRLIST TRIGGER       0.3
Info: PAIRLISTS PER CYCLE    2
Info: PAIRLISTS ENABLED
Info: MARGIN                 1
Info: HYDROGEN GROUP CUTOFF  2.5
Info: PATCH DIMENSION        18.5
Info: ENERGY OUTPUT STEPS    50
Info: CROSSTERM ENERGY INCLUDED IN DIHEDRAL
Info: TIMING OUTPUT STEPS    500
Info: VELOCITY REASSIGNMENT FREQ  1000
Info: VELOCITY REASSIGNMENT TEMP  298.15
Info: VELOCITY REASSIGNMENT HOLD  298.15
Info: PARTICLE MESH EWALD (PME) ACTIVE
Info: PME TOLERANCE               1e-06
Info: PME EWALD COEFFICIENT       0.257952
Info: PME INTERPOLATION ORDER     4
Info: PME GRID DIMENSIONS         32 28 56
Info: PME MAXIMUM GRID SPACING    0.9
Info: FULL ELECTROSTATIC EVALUATION FREQUENCY      1
Info: USING VERLET I (r-RESPA) MTS SCHEME.
Info: C1 SPLITTING OF LONG RANGE ELECTROSTATICS
Info: PLACING ATOMS IN PATCHES BY HYDROGEN GROUPS
Info: RANDOM NUMBER SEED     1500574309
Info: USE HYDROGEN BONDS?    NO
Info: COORDINATE PDB         all.pdb
Info: STRUCTURE FILE         all.psf
Info: PARAMETER file: CHARMM format!
Info: PARAMETERS             par_all22_prot_metals.inp
Info: USING GEOMETRIC MEAN TO COMBINE L-J SIGMA PARAMETERS
Info: SUMMARY OF PARAMETERS:
Info: 139 BONDS
Info: 345 ANGLES
Info: 452 DIHEDRAL
Info: 43 IMPROPER
Info: 0 CROSSTERM
Info: 98 VDW
Info: 0 VDW_PAIRS
Info: 0 NBTHOLE_PAIRS
Info: STRUCTURE SUMMARY:
Info: 655 ATOMS
Info: 57 BONDS
Info: 102 ANGLES
Info: 154 DIHEDRALS
Info: 9 IMPROPERS
Info: 0 CROSSTERMS
Info: 0 EXCLUSIONS
Info: 1962 DEGREES OF FREEDOM
Info: 629 HYDROGEN GROUPS
Info: 4 ATOMS IN LARGEST HYDROGEN GROUP
Info: 629 MIGRATION GROUPS
Info: 4 ATOMS IN LARGEST MIGRATION GROUP
Info: TOTAL MASS = 38528.1 amu
Info: TOTAL CHARGE = 1 e
Info: MASS DENSITY = 2.23719 g/cm^3
Info: ATOM DENSITY = 0.0229038 atoms/A^3
Info: ADDED 300 IMPLICIT EXCLUSIONS
Info: NONBONDED TABLE R-SQUARED SPACING: 0.0625
Info: NONBONDED TABLE SIZE: 769 POINTS
Info: REMOVING COM VELOCITY 0.151061 -0.0838012 0.163254
TCL: Minimizing for 5000 steps
ETITLE: TS BOND ANGLE DIHED IMPRP ELECT VDW BOUNDARY MISC KINETIC TOTAL TEMP POTENTIAL TOTAL3 TEMPAVG PRESSURE GPRESSURE VOLUME PRESSAVG GPRESSAVG
ENERGY: 0 5.2970 16.5125 23.6203 1.4253 -49.4983 219951597.7401 0.0000 0.0000 0.0000 219951595.0970 0.0000 219951595.0970 219951595.0970 0.0000 2138460943.9113 2105771045.7868 28597.8472 2138460943.9113 2105771045.7868
ENERGY: 1000 5.3584 22.8202 22.3959 2.3412 -94.8781 -21245.8917 0.0000 0.0000 0.0000 -21287.8542 0.0000 -21287.8542 -21287.8542 0.0000 -5336.5560 -5401.2864 28597.8472 -5336.5560 -5401.2864
ENERGY: 2000 7.4075 23.7658 23.2453 2.3620 -94.6935 -21250.5693 0.0000 0.0000 0.0000 -21288.4822 0.0000 -21288.4822 -21288.4822 0.0000 -5429.3109 -5499.0340 28597.8472 -5429.3109 -5499.0340
ENERGY: 3000 5.0864 14.4862 28.2437 1.6432 -95.3213 -21284.1288 0.0000 0.0000 0.0000 -21329.9906 0.0000 -21329.9906 -21329.9906 0.0000 -5439.0327 -5500.8560 28597.8472 -5439.0327 -5500.8560
ENERGY: 4000 5.1992 16.0337 24.3933 1.7198 -96.2313 -21287.0149 0.0000 0.0000 0.0000 -21335.9002 0.0000 -21335.9002 -21335.9002 0.0000 -5347.4911 -5399.2112 28597.8472 -5347.4911 -5399.2112
ENERGY: 5000 5.2004 16.1531 24.4645 1.6843 -96.2893 -21287.3380 0.0000 0.0000 0.0000 -21336.1250 0.0000 -21336.1250 -21336.1250 0.0000 -5317.7429 -5373.1322 28597.8472 -5317.7429 -5373.1322
