Info: SIMULATION PARAMETERS:
Info: TIMESTEP               1
Info: NUMBER OF STEPS        0
Info: STEPS PER CYCLE        20
Info: PERIODIC CELL BASIS 1  25.699 0 0
Info: PERIODIC CELL BASIS 2  0 22.256 0
Info: PERIODIC CELL BASIS 3  0 0 50
Info: PERIODIC CELL CENTER   0 0 0
Info: FIRST LDB TIMESTEP     100
Info: LAST LDB TIMESTEP     -1
Info: HOM BACKGROUND SCALING 1
Info: PME BACKGROUND SCALING 1
Info: MIN ATOMS PER PATCH    40
Info: INITIAL TEMPERATURE    298.15
Info: CENTER OF MASS MOVING INITIALLY? NO
Info: DIELECTRIC             1
Info: EXCLUDE                SCALED ONE-FOUR
Info: 1-4 ELECTROSTATICS SCALED BY 1
Info: MODIFIED 1-4 VDW PARAMETERS WILL BE USED
Info: DCD FILENAME           result.dcd
Info: DCD FREQUENCY          60
Info: DCD FIRST STEP         60
Info: DCD FILE WILL CONTAIN UNIT CELL DATA
Info: NO EXTENDED SYSTEM TRAJECTORY OUTPUT
Info: NO VELOCITY DCD OUTPUT
Info: NO FORCE DCD OUTPUT
Info: OUTPUT FILENAME        result
Info: NO RESTART FILE
Info: CUTOFF                 12
Info: PAIRLIST DISTANCE      15
Info: PAIRLIST SHRINK RATE   0.01
Info: PAIRLIST GROW RATE     0.01
Info: PAIRLIST TRIGGER       0.3
Info: PAIRLISTS PER CYCLE    2
Info: PAIRLISTS ENABLED
Info: MARGIN                 1
Info: HYDROGEN GROUP CUTOFF  2.5
Info: PATCH DIMENSION        18.5
Info: ENERGY OUTPUT STEPS    50
Info: CROSSTERM ENERGY INCLUDED IN DIHEDRAL
Info: TIMING OUTPUT STEPS    500
Info: VELOCITY REASSIGNMENT FREQ  1000
Info: VELOCITY REASSIGNMENT TEMP  298.15
Info: VELOCITY REASSIGNMENT HOLD  298.15
Info: PARTICLE MESH EWALD (PME) ACTIVE
Info: PME TOLERANCE               1e-06
Info: PME EWALD COEFFICIENT       0.257952
Info: PME INTERPOLATION ORDER     4
Info: PME GRID DIMENSIONS         32 28 56
Info: PME MAXIMUM GRID SPACING    0.9
Info: FULL ELECTROSTATIC EVALUATION FREQUENCY      1
Info: USING VERLET I (r-RESPA) MTS SCHEME.
Info: C1 SPLITTING OF LONG RANGE ELECTROSTATICS
Info: PLACING ATOMS IN PATCHES BY HYDROGEN GROUPS
Info: RANDOM NUMBER SEED     1499790364
Info: USE HYDROGEN BONDS?    NO
Info: COORDINATE PDB         all.pdb
Info: STRUCTURE FILE         all.psf
Info: PARAMETER file: CHARMM format!
Info: PARAMETERS             par_all22_prot_metals.inp
Info: USING ARITHMETIC MEAN TO COMBINE L-J SIGMA PARAMETERS
Info: SUMMARY OF PARAMETERS:
Info: 139 BONDS
Info: 345 ANGLES
Info: 452 DIHEDRAL
Info: 43 IMPROPER
Info: 0 CROSSTERM
Info: 98 VDW
Info: 0 VDW_PAIRS
Info: 0 NBTHOLE_PAIRS
Info: STRUCTURE SUMMARY:
Info: 655 ATOMS
Info: 57 BONDS
Info: 102 ANGLES
Info: 154 DIHEDRALS
Info: 9 IMPROPERS
Info: 0 CROSSTERMS
Info: 0 EXCLUSIONS
Info: 1962 DEGREES OF FREEDOM
Info: 629 HYDROGEN GROUPS
Info: 4 ATOMS IN LARGEST HYDROGEN GROUP
Info: 629 MIGRATION GROUPS
Info: 4 ATOMS IN LARGEST MIGRATION GROUP
Info: TOTAL MASS = 38528.1 amu
Info: TOTAL CHARGE = 1 e
Info: MASS DENSITY = 2.23719 g/cm^3
Info: ATOM DENSITY = 0.0229038 atoms/A^3
Info: ADDED 300 IMPLICIT EXCLUSIONS
Info: NONBONDED TABLE R-SQUARED SPACING: 0.0625
Info: NONBONDED TABLE SIZE: 769 POINTS
Info: REMOVING COM VELOCITY 0.100652 0.0499025 -0.0939071
TCL: Minimizing for 1000 steps
ETITLE: TS BOND ANGLE DIHED IMPRP ELECT VDW BOUNDARY MISC KINETIC TOTAL TEMP POTENTIAL TOTAL3 TEMPAVG PRESSURE GPRESSURE VOLUME PRESSAVG GPRESSAVG
ENERGY: 0 88.5529 43.6439 58.3259 0.0222 61.9724 -21265.7785 0.0000 0.0000 0.0000 -21013.2613 0.0000 -21013.2613 -21013.2613 0.0000 -8156.0103 -8063.7143 28597.8472 -8156.0103 -8063.7143
ENERGY: 200 4.9993 23.0912 29.0222 0.4435 19.1812 -21307.3753 0.0000 0.0000 0.0000 -21230.6379 0.0000 -21230.6379 -21230.6379 0.0000 -5669.7209 -5694.1775 28597.8472 -5669.7209 -5694.1775
ENERGY: 400 4.4417 20.5302 28.6285 1.0548 18.7933 -21316.6141 0.0000 0.0000 0.0000 -21243.1655 0.0000 -21243.1655 -21243.1655 0.0000 -4973.8000 -4998.1477 28597.8472 -4973.8000 -4998.1477
ENERGY: 600 3.8846 20.0320 28.7488 0.7540 22.3938 -21328.9412 0.0000 0.0000 0.0000 -21253.1279 0.0000 -21253.1279 -21253.1279 0.0000 -5276.7830 -5285.8141 28597.8472 -5276.7830 -5285.8141
ENERGY: 800 3.8199 19.3547 27.5620 0.5494 22.7013 -21332.6674 0.0000 0.0000 0.0000 -21258.6800 0.0000 -21258.6800 -21258.6800 0.0000 -5525.1093 -5542.4999 28597.8472 -5525.1093 -5542.4999
ENERGY: 1000 3.8939 19.1681 27.9326 0.6340 22.3015 -21335.8108 0.0000 0.0000 0.0000 -21261.8807 0.0000 -21261.8807 -21261.8807 0.0000 -5342.1436 -5354.3609 28597.8472 -5342.1436 -5354.3609
