Info: SIMULATION PARAMETERS:
Info: TIMESTEP               1
Info: NUMBER OF STEPS        0
Info: STEPS PER CYCLE        20
Info: PERIODIC CELL BASIS 1  25.699 0 0
Info: PERIODIC CELL BASIS 2  0 22.256 0
Info: PERIODIC CELL BASIS 3  0 0 50
Info: PERIODIC CELL CENTER   0 0 0
Info: FIRST LDB TIMESTEP     100
Info: LAST LDB TIMESTEP     -1
Info: HOM BACKGROUND SCALING 1
Info: PME BACKGROUND SCALING 1
Info: MIN ATOMS PER PATCH    40
Info: INITIAL TEMPERATURE    298.15
Info: CENTER OF MASS MOVING INITIALLY? NO
Info: DIELECTRIC             1
Info: EXCLUDE                SCALED ONE-FOUR
Info: 1-4 ELECTROSTATICS SCALED BY 1
Info: MODIFIED 1-4 VDW PARAMETERS WILL BE USED
Info: DCD FILENAME           result.dcd
Info: DCD FREQUENCY          60
Info: DCD FIRST STEP         60
Info: DCD FILE WILL CONTAIN UNIT CELL DATA
Info: NO EXTENDED SYSTEM TRAJECTORY OUTPUT
Info: NO VELOCITY DCD OUTPUT
Info: NO FORCE DCD OUTPUT
Info: OUTPUT FILENAME        result
Info: NO RESTART FILE
Info: CUTOFF                 12
Info: PAIRLIST DISTANCE      15
Info: PAIRLIST SHRINK RATE   0.01
Info: PAIRLIST GROW RATE     0.01
Info: PAIRLIST TRIGGER       0.3
Info: PAIRLISTS PER CYCLE    2
Info: PAIRLISTS ENABLED
Info: MARGIN                 1
Info: HYDROGEN GROUP CUTOFF  2.5
Info: PATCH DIMENSION        18.5
Info: ENERGY OUTPUT STEPS    50
Info: CROSSTERM ENERGY INCLUDED IN DIHEDRAL
Info: TIMING OUTPUT STEPS    500
Info: VELOCITY REASSIGNMENT FREQ  1000
Info: VELOCITY REASSIGNMENT TEMP  298.15
Info: VELOCITY REASSIGNMENT HOLD  298.15
Info: PARTICLE MESH EWALD (PME) ACTIVE
Info: PME TOLERANCE               1e-06
Info: PME EWALD COEFFICIENT       0.257952
Info: PME INTERPOLATION ORDER     4
Info: PME GRID DIMENSIONS         32 28 56
Info: PME MAXIMUM GRID SPACING    0.9
Info: FULL ELECTROSTATIC EVALUATION FREQUENCY      1
Info: USING VERLET I (r-RESPA) MTS SCHEME.
Info: C1 SPLITTING OF LONG RANGE ELECTROSTATICS
Info: PLACING ATOMS IN PATCHES BY HYDROGEN GROUPS
Info: RANDOM NUMBER SEED     1500574062
Info: USE HYDROGEN BONDS?    NO
Info: COORDINATE PDB         all.pdb
Info: STRUCTURE FILE         all.psf
Info: PARAMETER file: CHARMM format!
Info: PARAMETERS             par_all22_prot_metals.inp
Info: USING GEOMETRIC MEAN TO COMBINE L-J SIGMA PARAMETERS
Info: SUMMARY OF PARAMETERS:
Info: 139 BONDS
Info: 345 ANGLES
Info: 452 DIHEDRAL
Info: 43 IMPROPER
Info: 0 CROSSTERM
Info: 98 VDW
Info: 0 VDW_PAIRS
Info: 0 NBTHOLE_PAIRS
Info: STRUCTURE SUMMARY:
Info: 655 ATOMS
Info: 57 BONDS
Info: 102 ANGLES
Info: 154 DIHEDRALS
Info: 9 IMPROPERS
Info: 0 CROSSTERMS
Info: 0 EXCLUSIONS
Info: 1962 DEGREES OF FREEDOM
Info: 629 HYDROGEN GROUPS
Info: 4 ATOMS IN LARGEST HYDROGEN GROUP
Info: 629 MIGRATION GROUPS
Info: 4 ATOMS IN LARGEST MIGRATION GROUP
Info: TOTAL MASS = 38528.1 amu
Info: TOTAL CHARGE = 1 e
Info: MASS DENSITY = 2.23719 g/cm^3
Info: ATOM DENSITY = 0.0229038 atoms/A^3
Info: ADDED 300 IMPLICIT EXCLUSIONS
Info: NONBONDED TABLE R-SQUARED SPACING: 0.0625
Info: NONBONDED TABLE SIZE: 769 POINTS
Info: REMOVING COM VELOCITY -0.0208756 0.00696613 -0.0212517
TCL: Minimizing for 5000 steps
ETITLE: TS BOND ANGLE DIHED IMPRP ELECT VDW BOUNDARY MISC KINETIC TOTAL TEMP POTENTIAL TOTAL3 TEMPAVG PRESSURE GPRESSURE VOLUME PRESSAVG GPRESSAVG
ENERGY: 0 25.4757 15.2800 53.0594 1.2536 -15.7929 -21193.2767 0.0000 0.0000 0.0000 -21114.0010 0.0000 -21114.0010 -21114.0010 0.0000 -8384.9429 -8271.8711 28597.8472 -8384.9429 -8271.8711
ENERGY: 1000 4.7561 27.3881 21.9103 2.8448 -77.3879 -21344.7955 0.0000 0.0000 0.0000 -21365.2841 0.0000 -21365.2841 -21365.2841 0.0000 -5292.3580 -5335.0630 28597.8472 -5292.3580 -5335.0630
ENERGY: 2000 5.0121 27.3706 19.3030 1.3552 -85.4387 -21350.2249 0.0000 0.0000 0.0000 -21382.6227 0.0000 -21382.6227 -21382.6227 0.0000 -5263.9335 -5306.3734 28597.8472 -5263.9335 -5306.3734
ENERGY: 3000 61.2761 50.3699 20.0906 2.3210 -85.3693 -21350.1011 0.0000 0.0000 0.0000 -21301.4127 0.0000 -21301.4127 -21301.4127 0.0000 -5213.2524 -5316.0396 28597.8472 -5213.2524 -5316.0396
ENERGY: 4000 61.2761 50.3699 20.0906 2.3210 -85.3693 -21350.1011 0.0000 0.0000 0.0000 -21301.4127 0.0000 -21301.4127 -21301.4127 0.0000 -5213.2524 -5316.0396 28597.8472 -5213.2524 -5316.0396
ENERGY: 5000 4.9094 26.0674 19.1189 1.6502 -83.9001 -21351.2893 0.0000 0.0000 0.0000 -21383.4436 0.0000 -21383.4436 -21383.4436 0.0000 -5243.4654 -5286.0438 28597.8472 -5243.4654 -5286.0438
