Info: SIMULATION PARAMETERS:
Info: TIMESTEP               1
Info: NUMBER OF STEPS        0
Info: STEPS PER CYCLE        20
Info: PERIODIC CELL BASIS 1  25.699 0 0
Info: PERIODIC CELL BASIS 2  0 22.256 0
Info: PERIODIC CELL BASIS 3  0 0 50
Info: PERIODIC CELL CENTER   0 0 0
Info: FIRST LDB TIMESTEP     100
Info: LAST LDB TIMESTEP     -1
Info: HOM BACKGROUND SCALING 1
Info: PME BACKGROUND SCALING 1
Info: MIN ATOMS PER PATCH    40
Info: INITIAL TEMPERATURE    298.15
Info: CENTER OF MASS MOVING INITIALLY? NO
Info: DIELECTRIC             1
Info: EXCLUDE                SCALED ONE-FOUR
Info: 1-4 ELECTROSTATICS SCALED BY 1
Info: MODIFIED 1-4 VDW PARAMETERS WILL BE USED
Info: DCD FILENAME           result.dcd
Info: DCD FREQUENCY          60
Info: DCD FIRST STEP         60
Info: DCD FILE WILL CONTAIN UNIT CELL DATA
Info: NO EXTENDED SYSTEM TRAJECTORY OUTPUT
Info: NO VELOCITY DCD OUTPUT
Info: NO FORCE DCD OUTPUT
Info: OUTPUT FILENAME        result
Info: NO RESTART FILE
Info: CUTOFF                 12
Info: PAIRLIST DISTANCE      15
Info: PAIRLIST SHRINK RATE   0.01
Info: PAIRLIST GROW RATE     0.01
Info: PAIRLIST TRIGGER       0.3
Info: PAIRLISTS PER CYCLE    2
Info: PAIRLISTS ENABLED
Info: MARGIN                 1
Info: HYDROGEN GROUP CUTOFF  2.5
Info: PATCH DIMENSION        18.5
Info: ENERGY OUTPUT STEPS    50
Info: CROSSTERM ENERGY INCLUDED IN DIHEDRAL
Info: TIMING OUTPUT STEPS    500
Info: VELOCITY REASSIGNMENT FREQ  1000
Info: VELOCITY REASSIGNMENT TEMP  298.15
Info: VELOCITY REASSIGNMENT HOLD  298.15
Info: PARTICLE MESH EWALD (PME) ACTIVE
Info: PME TOLERANCE               1e-06
Info: PME EWALD COEFFICIENT       0.257952
Info: PME INTERPOLATION ORDER     4
Info: PME GRID DIMENSIONS         32 28 56
Info: PME MAXIMUM GRID SPACING    0.9
Info: FULL ELECTROSTATIC EVALUATION FREQUENCY      1
Info: USING VERLET I (r-RESPA) MTS SCHEME.
Info: C1 SPLITTING OF LONG RANGE ELECTROSTATICS
Info: PLACING ATOMS IN PATCHES BY HYDROGEN GROUPS
Info: RANDOM NUMBER SEED     1500574169
Info: USE HYDROGEN BONDS?    NO
Info: COORDINATE PDB         all.pdb
Info: STRUCTURE FILE         all.psf
Info: PARAMETER file: CHARMM format!
Info: PARAMETERS             par_all22_prot_metals.inp
Info: USING GEOMETRIC MEAN TO COMBINE L-J SIGMA PARAMETERS
Info: SUMMARY OF PARAMETERS:
Info: 139 BONDS
Info: 345 ANGLES
Info: 452 DIHEDRAL
Info: 43 IMPROPER
Info: 0 CROSSTERM
Info: 98 VDW
Info: 0 VDW_PAIRS
Info: 0 NBTHOLE_PAIRS
Info: STRUCTURE SUMMARY:
Info: 655 ATOMS
Info: 57 BONDS
Info: 102 ANGLES
Info: 154 DIHEDRALS
Info: 9 IMPROPERS
Info: 0 CROSSTERMS
Info: 0 EXCLUSIONS
Info: 1962 DEGREES OF FREEDOM
Info: 629 HYDROGEN GROUPS
Info: 4 ATOMS IN LARGEST HYDROGEN GROUP
Info: 629 MIGRATION GROUPS
Info: 4 ATOMS IN LARGEST MIGRATION GROUP
Info: TOTAL MASS = 38528.1 amu
Info: TOTAL CHARGE = 1 e
Info: MASS DENSITY = 2.23719 g/cm^3
Info: ATOM DENSITY = 0.0229038 atoms/A^3
Info: ADDED 300 IMPLICIT EXCLUSIONS
Info: NONBONDED TABLE R-SQUARED SPACING: 0.0625
Info: NONBONDED TABLE SIZE: 769 POINTS
Info: REMOVING COM VELOCITY 0.00639941 0.0152807 0.0627841
TCL: Minimizing for 5000 steps
ETITLE: TS BOND ANGLE DIHED IMPRP ELECT VDW BOUNDARY MISC KINETIC TOTAL TEMP POTENTIAL TOTAL3 TEMPAVG PRESSURE GPRESSURE VOLUME PRESSAVG GPRESSAVG
ENERGY: 0 25.5173 15.2337 52.0762 1.2513 54.9289 -21210.2102 0.0000 0.0000 0.0000 -21061.2029 0.0000 -21061.2029 -21061.2029 0.0000 -8533.8114 -8231.6121 28597.8472 -8533.8114 -8231.6121
ENERGY: 1000 4.1386 20.0239 29.6979 1.1510 14.4083 -21319.8604 0.0000 0.0000 0.0000 -21250.4407 0.0000 -21250.4407 -21250.4407 0.0000 -4963.9383 -4990.5957 28597.8472 -4963.9383 -4990.5957
ENERGY: 2000 3.9573 24.6974 29.1633 0.6202 12.5484 -21336.6632 0.0000 0.0000 0.0000 -21265.6766 0.0000 -21265.6766 -21265.6766 0.0000 -5272.8417 -5291.0881 28597.8472 -5272.8417 -5291.0881
ENERGY: 3000 3.9242 33.0529 32.1438 0.3880 5.2622 -21361.6470 0.0000 0.0000 0.0000 -21286.8759 0.0000 -21286.8759 -21286.8759 0.0000 -5207.1663 -5218.7118 28597.8472 -5207.1663 -5218.7118
ENERGY: 4000 6.1894 30.6316 32.2976 0.7961 -52.1001 -21356.3317 0.0000 0.0000 0.0000 -21338.5171 0.0000 -21338.5171 -21338.5171 0.0000 -5398.4475 -5415.8835 28597.8472 -5398.4475 -5415.8835
ENERGY: 5000 5.2740 39.2323 32.3454 2.1974 -69.5372 -21357.4890 0.0000 0.0000 0.0000 -21347.9769 0.0000 -21347.9769 -21347.9769 0.0000 -5367.6425 -5386.5785 28597.8472 -5367.6425 -5386.5785
