Info: SIMULATION PARAMETERS:
Info: TIMESTEP               1
Info: NUMBER OF STEPS        0
Info: STEPS PER CYCLE        20
Info: PERIODIC CELL BASIS 1  25.699 0 0
Info: PERIODIC CELL BASIS 2  0 22.256 0
Info: PERIODIC CELL BASIS 3  0 0 50
Info: PERIODIC CELL CENTER   0 0 0
Info: FIRST LDB TIMESTEP     100
Info: LAST LDB TIMESTEP     -1
Info: HOM BACKGROUND SCALING 1
Info: PME BACKGROUND SCALING 1
Info: MIN ATOMS PER PATCH    40
Info: INITIAL TEMPERATURE    298.15
Info: CENTER OF MASS MOVING INITIALLY? NO
Info: DIELECTRIC             1
Info: EXCLUDE                SCALED ONE-FOUR
Info: 1-4 ELECTROSTATICS SCALED BY 1
Info: MODIFIED 1-4 VDW PARAMETERS WILL BE USED
Info: DCD FILENAME           result.dcd
Info: DCD FREQUENCY          60
Info: DCD FIRST STEP         60
Info: DCD FILE WILL CONTAIN UNIT CELL DATA
Info: NO EXTENDED SYSTEM TRAJECTORY OUTPUT
Info: NO VELOCITY DCD OUTPUT
Info: NO FORCE DCD OUTPUT
Info: OUTPUT FILENAME        result
Info: NO RESTART FILE
Info: CUTOFF                 12
Info: PAIRLIST DISTANCE      15
Info: PAIRLIST SHRINK RATE   0.01
Info: PAIRLIST GROW RATE     0.01
Info: PAIRLIST TRIGGER       0.3
Info: PAIRLISTS PER CYCLE    2
Info: PAIRLISTS ENABLED
Info: MARGIN                 1
Info: HYDROGEN GROUP CUTOFF  2.5
Info: PATCH DIMENSION        18.5
Info: ENERGY OUTPUT STEPS    50
Info: CROSSTERM ENERGY INCLUDED IN DIHEDRAL
Info: TIMING OUTPUT STEPS    500
Info: VELOCITY REASSIGNMENT FREQ  1000
Info: VELOCITY REASSIGNMENT TEMP  298.15
Info: VELOCITY REASSIGNMENT HOLD  298.15
Info: PARTICLE MESH EWALD (PME) ACTIVE
Info: PME TOLERANCE               1e-06
Info: PME EWALD COEFFICIENT       0.257952
Info: PME INTERPOLATION ORDER     4
Info: PME GRID DIMENSIONS         32 28 56
Info: PME MAXIMUM GRID SPACING    0.9
Info: FULL ELECTROSTATIC EVALUATION FREQUENCY      1
Info: USING VERLET I (r-RESPA) MTS SCHEME.
Info: C1 SPLITTING OF LONG RANGE ELECTROSTATICS
Info: PLACING ATOMS IN PATCHES BY HYDROGEN GROUPS
Info: RANDOM NUMBER SEED     1500574258
Info: USE HYDROGEN BONDS?    NO
Info: COORDINATE PDB         all.pdb
Info: STRUCTURE FILE         all.psf
Info: PARAMETER file: CHARMM format!
Info: PARAMETERS             par_all22_prot_metals.inp
Info: USING GEOMETRIC MEAN TO COMBINE L-J SIGMA PARAMETERS
Info: SUMMARY OF PARAMETERS:
Info: 139 BONDS
Info: 345 ANGLES
Info: 452 DIHEDRAL
Info: 43 IMPROPER
Info: 0 CROSSTERM
Info: 98 VDW
Info: 0 VDW_PAIRS
Info: 0 NBTHOLE_PAIRS
Info: STRUCTURE SUMMARY:
Info: 655 ATOMS
Info: 57 BONDS
Info: 102 ANGLES
Info: 154 DIHEDRALS
Info: 9 IMPROPERS
Info: 0 CROSSTERMS
Info: 0 EXCLUSIONS
Info: 1962 DEGREES OF FREEDOM
Info: 629 HYDROGEN GROUPS
Info: 4 ATOMS IN LARGEST HYDROGEN GROUP
Info: 629 MIGRATION GROUPS
Info: 4 ATOMS IN LARGEST MIGRATION GROUP
Info: TOTAL MASS = 38528.1 amu
Info: TOTAL CHARGE = 1 e
Info: MASS DENSITY = 2.23719 g/cm^3
Info: ATOM DENSITY = 0.0229038 atoms/A^3
Info: ADDED 300 IMPLICIT EXCLUSIONS
Info: NONBONDED TABLE R-SQUARED SPACING: 0.0625
Info: NONBONDED TABLE SIZE: 769 POINTS
Info: REMOVING COM VELOCITY 0.100198 0.110116 -0.0259928
TCL: Minimizing for 5000 steps
ETITLE: TS BOND ANGLE DIHED IMPRP ELECT VDW BOUNDARY MISC KINETIC TOTAL TEMP POTENTIAL TOTAL3 TEMPAVG PRESSURE GPRESSURE VOLUME PRESSAVG GPRESSAVG
ENERGY: 0 5.3070 16.4741 19.4367 1.4069 -72.2400 17357450.4867 0.0000 0.0000 0.0000 17357420.8714 0.0000 17357420.8714 17357420.8714 0.0000 168973707.6199 184927219.0689 28597.8472 168973707.6199 184927219.0689
ENERGY: 1000 4.7815 11.3679 28.1239 1.9315 -92.6056 -21264.9052 0.0000 0.0000 0.0000 -21311.3061 0.0000 -21311.3061 -21311.3061 0.0000 -5250.4838 -5314.8780 28597.8472 -5250.4838 -5314.8780
ENERGY: 2000 5.0790 11.7213 26.5109 2.9277 -96.2485 -21273.7998 0.0000 0.0000 0.0000 -21323.8094 0.0000 -21323.8094 -21323.8094 0.0000 -5237.5804 -5305.8956 28597.8472 -5237.5804 -5305.8956
ENERGY: 3000 5.1446 12.4977 26.2739 2.7960 -97.3803 -21278.1880 0.0000 0.0000 0.0000 -21328.8561 0.0000 -21328.8561 -21328.8561 0.0000 -5300.2425 -5374.0904 28597.8472 -5300.2425 -5374.0904
ENERGY: 4000 6.1222 13.6191 26.9274 2.8783 -98.2452 -21282.0547 0.0000 0.0000 0.0000 -21330.7529 0.0000 -21330.7529 -21330.7529 0.0000 -5324.8805 -5398.1072 28597.8472 -5324.8805 -5398.1072
ENERGY: 5000 5.4081 13.5424 26.9363 3.0912 -98.5713 -21282.9498 0.0000 0.0000 0.0000 -21332.5431 0.0000 -21332.5431 -21332.5431 0.0000 -5319.6888 -5394.0037 28597.8472 -5319.6888 -5394.0037
